/*--------------------------------*- C++ -*----------------------------------*\
| =========                 |                                                 |
| \\      /  F ield         | OpenFOAM: The Open Source CFD Toolbox           |
|  \\    /   O peration     | Version:  2412                                  |
|   \\  /    A nd           | Website:  www.openfoam.com                      |
|    \\/     M anipulation  |                                                 |
\*---------------------------------------------------------------------------*/
FoamFile
{
    version     2.0;
    format      ascii;
    arch        "LSB;label=32;scalar=64";
    class       featureEdgeMesh;
    location    "constant/triSurface";
    object      defaultFaces.eMesh;
}
// * * * * * * * * * * * * * * * * * * * * * * * * * * * * * * * * * * * * * //


// points:

100
(
(0.860011 0.3 1e-06)
(1.62004 0.3 0.0479772)
(0.734151 0.3 0.234448)
(0.723652 0.3 0.228648)
(0.624039 0.3 0.174376)
(0.552029 0.3 0.159982)
(0.200006 0.3 0.148002)
(1.62004 0.3 1e-06)
(2.26004 0.3 0.0479772)
(2.26004 0.3 0.648002)
(0.900016 0.3 0.648002)
(0.732669 0.3 0.2441)
(0.200006 0.3 0.648002)
(0.754175 0.3 0.446368)
(0.754175 0.3 0.648002)
(0.540006 0.3 0.148002)
(0.624039 0.3 0.159982)
(0.681856 0.3 0.162378)
(0.683434 0.3 0.160787)
(1.62004 0.5 1e-06)
(0.860011 0.5 1e-06)
(1.62004 0.5 0.0479772)
(0.734151 0.5 0.234448)
(0.723652 0.5 0.228648)
(0.681856 0.5 0.162378)
(0.683434 0.5 0.160787)
(0.624039 0.5 0.174376)
(0.552029 0.5 0.159982)
(0.200006 0.5 0.148002)
(0.200006 0.5 0.648002)
(0.754175 0.5 0.446368)
(0.754175 0.5 0.648002)
(0.624039 0.5 0.159982)
(0.540006 0.5 0.148002)
(0.732669 0.5 0.2441)
(2.26004 0.5 0.648002)
(2.26004 0.5 0.0479772)
(0.900016 0.5 0.648002)
(0.786857 0.3 0.149991)
(0.781938 0.3 0.15574)
(0.856879 0.3 0.288897)
(0.835761 0.3 0.278777)
(0.775758 0.3 0.160105)
(0.768696 0.3 0.162819)
(0.653631 0.3 0.174376)
(0.658167 0.3 0.17321)
(0.717858 0.3 0.239156)
(0.707097 0.3 0.278448)
(0.705252 0.3 0.319144)
(0.712413 0.3 0.359249)
(0.900016 0.3 0.367949)
(0.8971 0.3 0.344714)
(0.88853 0.3 0.322921)
(0.87484 0.3 0.303923)
(0.712722 0.3 0.3795)
(0.717362 0.3 0.399215)
(0.726117 0.3 0.417479)
(0.738581 0.3 0.433444)
(0.662275 0.3 0.170961)
(0.736776 0.3 0.160787)
(0.747401 0.3 0.161295)
(0.75807 0.3 0.161972)
(0.6657 0.3 0.167767)
(0.704771 0.3 0.160279)
(0.715439 0.3 0.160279)
(0.726107 0.3 0.160448)
(0.670609 0.3 0.16471)
(0.676095 0.3 0.16288)
(0.694103 0.3 0.160448)
(0.786857 0.5 0.149991)
(0.781938 0.5 0.15574)
(0.835761 0.5 0.278777)
(0.856879 0.5 0.288897)
(0.775758 0.5 0.160105)
(0.768696 0.5 0.162819)
(0.658167 0.5 0.17321)
(0.653631 0.5 0.174376)
(0.75807 0.5 0.161972)
(0.747401 0.5 0.161295)
(0.736776 0.5 0.160787)
(0.662275 0.5 0.170961)
(0.726107 0.5 0.160448)
(0.715439 0.5 0.160279)
(0.704771 0.5 0.160279)
(0.6657 0.5 0.167767)
(0.670609 0.5 0.16471)
(0.676095 0.5 0.16288)
(0.694103 0.5 0.160448)
(0.717858 0.5 0.239156)
(0.707097 0.5 0.278448)
(0.705252 0.5 0.319144)
(0.712413 0.5 0.359249)
(0.712722 0.5 0.3795)
(0.717362 0.5 0.399215)
(0.726117 0.5 0.417479)
(0.738581 0.5 0.433444)
(0.87484 0.5 0.303923)
(0.88853 0.5 0.322921)
(0.8971 0.5 0.344714)
(0.900016 0.5 0.367949)
)


// edges:

100
(
(38 0)
(39 38)
(40 41)
(42 39)
(43 42)
(2 3)
(44 45)
(4 44)
(3 46)
(46 47)
(47 48)
(48 49)
(0 7)
(7 1)
(8 9)
(1 8)
(50 51)
(9 10)
(10 50)
(51 52)
(52 53)
(53 40)
(41 11)
(11 2)
(49 54)
(12 6)
(54 55)
(55 56)
(56 57)
(57 13)
(13 14)
(14 12)
(6 15)
(15 5)
(5 16)
(16 4)
(45 58)
(59 60)
(60 61)
(58 62)
(63 64)
(64 65)
(62 66)
(66 67)
(67 17)
(18 68)
(17 18)
(68 63)
(65 59)
(61 43)
(19 20)
(21 19)
(20 69)
(69 70)
(71 72)
(70 73)
(73 74)
(23 22)
(75 76)
(74 77)
(77 78)
(78 79)
(80 75)
(79 81)
(81 82)
(82 83)
(84 80)
(85 84)
(24 86)
(86 85)
(83 87)
(87 25)
(25 24)
(76 26)
(88 23)
(89 88)
(90 89)
(91 90)
(92 91)
(28 29)
(93 92)
(94 93)
(95 94)
(30 95)
(29 31)
(31 30)
(26 32)
(32 27)
(27 33)
(33 28)
(22 34)
(34 71)
(72 96)
(96 97)
(97 98)
(98 99)
(35 36)
(36 21)
(99 37)
(37 35)
)

// * * * * * * * * * * * * * * * * * * * * * * * * * * * * * * * * * * * * * //


// ************************************************************************* //
