/*--------------------------------*- C++ -*----------------------------------*\
| =========                 |                                                 |
| \\      /  F ield         | OpenFOAM: The Open Source CFD Toolbox           |
|  \\    /   O peration     | Version:  2412                                  |
|   \\  /    A nd           | Website:  www.openfoam.com                      |
|    \\/     M anipulation  |                                                 |
\*---------------------------------------------------------------------------*/
FoamFile
{
    version     2.0;
    format      ascii;
    arch        "LSB;label=32;scalar=64";
    class       extendedFeatureEdgeMesh;
    location    "constant/extendedFeatureEdgeMesh";
    object      atmosphere.extendedFeatureEdgeMesh;
}
// * * * * * * * * * * * * * * * * * * * * * * * * * * * * * * * * * * * * * //

// points
8((0.900016 0.5 0.648002) (0.900016 0.3 0.648002) (2.26004 0.5 0.648002) (2.26004 0.3 0.648002) (0.754175 0.3 0.648002) (0.754175 0.5 0.648002) (0.200006 0.3 0.648002) (0.200006 0.5 0.648002))
// edges
8((0 1) (2 0) (1 3) (3 2) (4 5) (6 4) (5 7) (7 6))
// concaveStart mixedStart nonFeatureStart
0 0 8
// internalStart flatStart openStart multipleStart
0 0 0 8
// normals
4{(-0 0 1)}
// normal volume types

4
(
0
0
0
0
)

// normalDirections

8
(
1(1)
1(1)
1(1)
1(1)
1(1)
1(1)
1(1)
1(1)
)

// edgeNormals

8
(
1(0)
1(0)
1(1)
1(1)
1(2)
1(2)
1(3)
1(3)
)

// featurePointNormals

8
(
1(0)
1(0)
1(0)
1(1)
1(2)
1(2)
1(2)
1(3)
)

// featurePointEdges

8
(
2(0 1)
2(0 2)
2(1 3)
2(2 3)
2(4 5)
2(4 6)
2(5 7)
2(6 7)
)

// regionEdges
8(0 1 2 3 4 5 6 7)


// ************************************************************************* //
