/*--------------------------------*- C++ -*----------------------------------*\
| =========                 |                                                 |
| \\      /  F ield         | OpenFOAM: The Open Source CFD Toolbox           |
|  \\    /   O peration     | Version:  2412                                  |
|   \\  /    A nd           | Website:  www.openfoam.com                      |
|    \\/     M anipulation  |                                                 |
\*---------------------------------------------------------------------------*/
FoamFile
{
    version     2.0;
    format      ascii;
    arch        "LSB;label=32;scalar=64";
    class       extendedFeatureEdgeMesh;
    location    "constant/extendedFeatureEdgeMesh";
    object      defaultFaces.extendedFeatureEdgeMesh;
}
// * * * * * * * * * * * * * * * * * * * * * * * * * * * * * * * * * * * * * //

// points

100
(
(0.860011 0.3 1e-06)
(1.62004 0.3 0.0479772)
(0.734151 0.3 0.234448)
(0.723652 0.3 0.228648)
(0.624039 0.3 0.174376)
(0.552029 0.3 0.159982)
(0.200006 0.3 0.148002)
(1.62004 0.3 1e-06)
(2.26004 0.3 0.0479772)
(2.26004 0.3 0.648002)
(0.900016 0.3 0.648002)
(0.732669 0.3 0.2441)
(0.200006 0.3 0.648002)
(0.754175 0.3 0.446368)
(0.754175 0.3 0.648002)
(0.540006 0.3 0.148002)
(0.624039 0.3 0.159982)
(0.681856 0.3 0.162378)
(0.683434 0.3 0.160787)
(1.62004 0.5 1e-06)
(0.860011 0.5 1e-06)
(1.62004 0.5 0.0479772)
(0.734151 0.5 0.234448)
(0.723652 0.5 0.228648)
(0.681856 0.5 0.162378)
(0.683434 0.5 0.160787)
(0.624039 0.5 0.174376)
(0.552029 0.5 0.159982)
(0.200006 0.5 0.148002)
(0.200006 0.5 0.648002)
(0.754175 0.5 0.446368)
(0.754175 0.5 0.648002)
(0.624039 0.5 0.159982)
(0.540006 0.5 0.148002)
(0.732669 0.5 0.2441)
(2.26004 0.5 0.648002)
(2.26004 0.5 0.0479772)
(0.900016 0.5 0.648002)
(0.786857 0.3 0.149991)
(0.781938 0.3 0.15574)
(0.856879 0.3 0.288897)
(0.835761 0.3 0.278777)
(0.775758 0.3 0.160105)
(0.768696 0.3 0.162819)
(0.653631 0.3 0.174376)
(0.658167 0.3 0.17321)
(0.717858 0.3 0.239156)
(0.707097 0.3 0.278448)
(0.705252 0.3 0.319144)
(0.712413 0.3 0.359249)
(0.900016 0.3 0.367949)
(0.8971 0.3 0.344714)
(0.88853 0.3 0.322921)
(0.87484 0.3 0.303923)
(0.712722 0.3 0.3795)
(0.717362 0.3 0.399215)
(0.726117 0.3 0.417479)
(0.738581 0.3 0.433444)
(0.662275 0.3 0.170961)
(0.736776 0.3 0.160787)
(0.747401 0.3 0.161295)
(0.75807 0.3 0.161972)
(0.6657 0.3 0.167767)
(0.704771 0.3 0.160279)
(0.715439 0.3 0.160279)
(0.726107 0.3 0.160448)
(0.670609 0.3 0.16471)
(0.676095 0.3 0.16288)
(0.694103 0.3 0.160448)
(0.786857 0.5 0.149991)
(0.781938 0.5 0.15574)
(0.835761 0.5 0.278777)
(0.856879 0.5 0.288897)
(0.775758 0.5 0.160105)
(0.768696 0.5 0.162819)
(0.658167 0.5 0.17321)
(0.653631 0.5 0.174376)
(0.75807 0.5 0.161972)
(0.747401 0.5 0.161295)
(0.736776 0.5 0.160787)
(0.662275 0.5 0.170961)
(0.726107 0.5 0.160448)
(0.715439 0.5 0.160279)
(0.704771 0.5 0.160279)
(0.6657 0.5 0.167767)
(0.670609 0.5 0.16471)
(0.676095 0.5 0.16288)
(0.694103 0.5 0.160448)
(0.717858 0.5 0.239156)
(0.707097 0.5 0.278448)
(0.705252 0.5 0.319144)
(0.712413 0.5 0.359249)
(0.712722 0.5 0.3795)
(0.717362 0.5 0.399215)
(0.726117 0.5 0.417479)
(0.738581 0.5 0.433444)
(0.87484 0.5 0.303923)
(0.88853 0.5 0.322921)
(0.8971 0.5 0.344714)
(0.900016 0.5 0.367949)
)

// edges

100
(
(38 0)
(39 38)
(40 41)
(42 39)
(43 42)
(2 3)
(44 45)
(4 44)
(3 46)
(46 47)
(47 48)
(48 49)
(0 7)
(7 1)
(8 9)
(1 8)
(50 51)
(9 10)
(10 50)
(51 52)
(52 53)
(53 40)
(41 11)
(11 2)
(49 54)
(12 6)
(54 55)
(55 56)
(56 57)
(57 13)
(13 14)
(14 12)
(6 15)
(15 5)
(5 16)
(16 4)
(45 58)
(59 60)
(60 61)
(58 62)
(63 64)
(64 65)
(62 66)
(66 67)
(67 17)
(18 68)
(17 18)
(68 63)
(65 59)
(61 43)
(19 20)
(21 19)
(20 69)
(69 70)
(71 72)
(70 73)
(73 74)
(23 22)
(75 76)
(74 77)
(77 78)
(78 79)
(80 75)
(79 81)
(81 82)
(82 83)
(84 80)
(85 84)
(24 86)
(86 85)
(83 87)
(87 25)
(25 24)
(76 26)
(88 23)
(89 88)
(90 89)
(91 90)
(92 91)
(28 29)
(93 92)
(94 93)
(95 94)
(30 95)
(29 31)
(31 30)
(26 32)
(32 27)
(27 33)
(33 28)
(22 34)
(34 71)
(72 96)
(96 97)
(97 98)
(98 99)
(35 36)
(36 21)
(99 37)
(37 35)
)

// concaveStart mixedStart nonFeatureStart
0 0 38
// internalStart flatStart openStart multipleStart
0 0 0 100
// normals

82
(
(0 -1 0)
(0 -1 0)
(0 -1 0)
(0 -1 0)
(0 -1 0)
(0 -1 0)
(0 -1 0)
(0 -1 0)
(0 -1 0)
(0 -1 0)
(0 -1 0)
(0 -1 0)
(0 -1 0)
(0 -1 0)
(0 -1 0)
(-0 -1 0)
(0 -1 -0)
(0 -1 0)
(0 -1 0)
(0 -1 0)
(-0 -1 0)
(0 -1 0)
(0 -1 0)
(0 -1 0)
(0 -1 0)
(0 -1 0)
(0 -1 0)
(0 -1 0)
(0 -1 0)
(0 -1 0)
(0 -1 0)
(0 -1 0)
(0 -1 0)
(0 -1 0)
(0 -1 0)
(0 -1 0)
(0 -1 0)
(0 -1 0)
(0 -1 0)
(0 -1 0)
(0 -1 0)
(0 1 -0)
(0 1 0)
(0 1 0)
(0 1 0)
(0 1 0)
(0 1 0)
(0 1 0)
(0 1 0)
(0 1 0)
(0 1 0)
(0 1 0)
(0 1 0)
(0 1 0)
(0 1 0)
(0 1 0)
(0 1 0)
(0 1 0)
(0 1 0)
(0 1 0)
(0 1 0)
(0 1 -0)
(0 1 0)
(0 1 0)
(0 1 0)
(0 1 -0)
(0 1 -0)
(0 1 0)
(0 1 -0)
(0 1 -0)
(0 1 -0)
(0 1 -0)
(0 1 -0)
(0 1 0)
(0 1 0)
(0 1 -0)
(-0 1 0)
(0 1 0)
(0 1 0)
(-0 1 0)
(0 1 0)
(0 1 0)
)

// normal volume types

82
(
0
0
0
0
0
0
0
0
0
0
0
0
0
0
0
0
0
0
0
0
0
0
0
0
0
0
0
0
0
0
0
0
0
0
0
0
0
0
0
0
0
0
0
0
0
0
0
0
0
0
0
0
0
0
0
0
0
0
0
0
0
0
0
0
0
0
0
0
0
0
0
0
0
0
0
0
0
0
0
0
0
0
)

// normalDirections

100
(
1(1)
1(1)
1(1)
1(1)
1(1)
1(1)
1(1)
1(1)
1(1)
1(1)
1(1)
1(1)
1(1)
1(1)
1(1)
1(1)
1(1)
1(1)
1(1)
1(1)
1(1)
1(1)
1(1)
1(1)
1(1)
1(1)
1(1)
1(1)
1(1)
1(1)
1(1)
1(1)
1(1)
1(1)
1(1)
1(1)
1(1)
1(1)
1(1)
1(1)
1(1)
1(1)
1(1)
1(1)
1(1)
1(1)
1(1)
1(1)
1(1)
1(1)
1(1)
1(1)
1(1)
1(1)
1(1)
1(1)
1(1)
1(1)
1(1)
1(1)
1(1)
1(1)
1(1)
1(1)
1(1)
1(1)
1(1)
1(1)
1(1)
1(1)
1(1)
1(1)
1(1)
1(1)
1(1)
1(1)
1(1)
1(1)
1(1)
1(1)
1(1)
1(1)
1(1)
1(1)
1(1)
1(1)
1(1)
1(1)
1(1)
1(1)
1(1)
1(1)
1(1)
1(1)
1(1)
1(1)
1(1)
1(1)
1(1)
1(1)
)

// edgeNormals

100
(
1(0)
1(1)
1(2)
1(3)
1(4)
1(5)
1(6)
1(7)
1(8)
1(9)
1(10)
1(11)
1(12)
1(12)
1(13)
1(13)
1(14)
1(15)
1(15)
1(16)
1(17)
1(18)
1(19)
1(19)
1(20)
1(21)
1(22)
1(23)
1(24)
1(25)
1(26)
1(26)
1(27)
1(27)
1(28)
1(28)
1(29)
1(30)
1(31)
1(32)
1(33)
1(34)
1(35)
1(36)
1(36)
1(37)
1(37)
1(38)
1(39)
1(40)
1(41)
1(41)
1(42)
1(43)
1(44)
1(45)
1(46)
1(47)
1(48)
1(49)
1(50)
1(51)
1(52)
1(53)
1(54)
1(55)
1(56)
1(57)
1(58)
1(58)
1(59)
1(60)
1(60)
1(61)
1(62)
1(63)
1(64)
1(65)
1(66)
1(67)
1(68)
1(69)
1(70)
1(71)
1(72)
1(72)
1(73)
1(73)
1(74)
1(74)
1(75)
1(75)
1(76)
1(77)
1(78)
1(79)
1(80)
1(80)
1(81)
1(81)
)

// featurePointNormals

38
(
1(0)
1(12)
1(5)
1(5)
1(7)
1(27)
1(21)
1(12)
1(13)
1(13)
1(15)
1(19)
1(21)
1(25)
1(26)
1(27)
1(28)
1(36)
1(37)
1(41)
1(41)
1(41)
1(47)
1(47)
1(58)
1(60)
1(61)
1(73)
1(67)
1(67)
1(71)
1(72)
1(73)
1(74)
1(75)
1(80)
1(80)
1(81)
)

// featurePointEdges

38
(
2(0 12)
2(13 15)
2(5 23)
2(5 8)
2(7 35)
2(33 34)
2(25 32)
2(12 13)
2(14 15)
2(14 17)
2(17 18)
2(22 23)
2(25 31)
2(29 30)
2(30 31)
2(32 33)
2(34 35)
2(44 46)
2(45 46)
2(50 51)
2(50 52)
2(51 97)
2(57 90)
2(57 74)
2(68 72)
2(71 72)
2(73 86)
2(87 88)
2(79 89)
2(79 84)
2(83 85)
2(84 85)
2(86 87)
2(88 89)
2(90 91)
2(96 99)
2(96 97)
2(98 99)
)

// regionEdges

100
(
0
1
2
3
4
5
6
7
8
9
10
11
12
13
14
15
16
17
18
19
20
21
22
23
24
25
26
27
28
29
30
31
32
33
34
35
36
37
38
39
40
41
42
43
44
45
46
47
48
49
50
51
52
53
54
55
56
57
58
59
60
61
62
63
64
65
66
67
68
69
70
71
72
73
74
75
76
77
78
79
80
81
82
83
84
85
86
87
88
89
90
91
92
93
94
95
96
97
98
99
)



// ************************************************************************* //
