/*--------------------------------*- C++ -*----------------------------------*\
| =========                 |                                                 |
| \\      /  F ield         | OpenFOAM: The Open Source CFD Toolbox           |
|  \\    /   O peration     | Version:  2412                                  |
|   \\  /    A nd           | Website:  www.openfoam.com                      |
|    \\/     M anipulation  |                                                 |
\*---------------------------------------------------------------------------*/
FoamFile
{
    version     2.0;
    format      ascii;
    arch        "LSB;label=32;scalar=64";
    class       extendedFeatureEdgeMesh;
    location    "constant/extendedFeatureEdgeMesh";
    object      gate.extendedFeatureEdgeMesh;
}
// * * * * * * * * * * * * * * * * * * * * * * * * * * * * * * * * * * * * * //

// points

40
(
(0.723652 0.3 0.228648)
(0.734151 0.3 0.234448)
(0.723652 0.5 0.228648)
(0.734151 0.5 0.234448)
(0.732669 0.3 0.2441)
(0.732669 0.5 0.2441)
(0.900016 0.5 0.648002)
(0.900016 0.3 0.648002)
(0.754175 0.5 0.648002)
(0.754175 0.3 0.648002)
(0.754175 0.5 0.446368)
(0.754175 0.3 0.446368)
(0.717858 0.3 0.239156)
(0.717858 0.5 0.239156)
(0.835761 0.3 0.278777)
(0.835761 0.5 0.278777)
(0.900016 0.5 0.367949)
(0.900016 0.3 0.367949)
(0.8971 0.3 0.344714)
(0.8971 0.5 0.344714)
(0.88853 0.3 0.322921)
(0.88853 0.5 0.322921)
(0.87484 0.3 0.303923)
(0.87484 0.5 0.303923)
(0.856879 0.3 0.288897)
(0.856879 0.5 0.288897)
(0.738581 0.5 0.433444)
(0.738581 0.3 0.433444)
(0.726117 0.5 0.417479)
(0.726117 0.3 0.417479)
(0.717362 0.5 0.399215)
(0.717362 0.3 0.399215)
(0.712722 0.5 0.3795)
(0.712722 0.3 0.3795)
(0.712413 0.5 0.359249)
(0.712413 0.3 0.359249)
(0.707097 0.3 0.278448)
(0.707097 0.5 0.278448)
(0.705252 0.3 0.319144)
(0.705252 0.5 0.319144)
)

// edges

44
(
(4 5)
(11 10)
(2 0)
(1 3)
(0 1)
(3 2)
(12 0)
(2 13)
(1 4)
(5 3)
(4 14)
(15 5)
(6 16)
(17 7)
(7 6)
(18 17)
(16 19)
(20 18)
(19 21)
(22 20)
(21 23)
(24 22)
(23 25)
(14 24)
(25 15)
(8 9)
(10 8)
(9 11)
(26 10)
(11 27)
(28 26)
(27 29)
(30 28)
(29 31)
(32 30)
(31 33)
(34 32)
(33 35)
(36 12)
(13 37)
(38 36)
(37 39)
(35 38)
(39 34)
)

// concaveStart mixedStart nonFeatureStart
0 0 12
// internalStart flatStart openStart multipleStart
2 4 4 44
// normals

38
(
(-0.483545 0 0.87532)
(-0.483545 0 0.87532)
(0.875687 -0 0.48288)
(0.875687 0 0.48288)
(-0.988422 0 -0.151733)
(-0.988422 0 -0.151733)
(-0.318814 0 0.947817)
(-0.318814 0 0.947817)
(-1 0 0)
(-1 -0 0)
(-0.992217 0 0.124523)
(-0.992217 0 0.124523)
(-0.930639 0 0.365939)
(-0.930639 0 0.365939)
(-0.811312 0 0.584613)
(-0.811312 0 0.584613)
(-0.641641 0 0.767005)
(-0.641641 0 0.767005)
(-0.432151 0 0.901801)
(-0.432151 0 0.901801)
(1 0 0)
(1 0 0)
(0.638106 0 -0.769948)
(0.638106 0 -0.769948)
(0.788224 0 -0.615388)
(0.788224 0 -0.615388)
(0.901744 0 -0.43227)
(0.901744 0 -0.43227)
(0.973409 0 -0.229073)
(0.973409 0 -0.229073)
(0.999884 0 -0.0152531)
(0.999884 0 -0.0152531)
(0.964485 -0 0.264138)
(0.964485 -0 0.264138)
(0.998974 -0 0.0452915)
(0.998974 -0 0.0452915)
(0.984429 0 -0.175783)
(0.984429 0 -0.175783)
)

// normal volume types

38
(
0
0
0
0
0
0
0
0
0
0
0
0
0
0
0
0
0
0
0
0
0
0
0
0
0
0
0
0
0
0
0
0
0
0
0
0
0
0
)

// normalDirections

44
(
2(1 -1)
2(1 -1)
2(1 -1)
2(1 -1)
1(1)
1(1)
1(1)
1(1)
1(1)
1(1)
1(1)
1(1)
1(1)
1(1)
1(1)
1(1)
1(1)
1(1)
1(1)
1(1)
1(1)
1(1)
1(1)
1(1)
1(1)
1(1)
1(1)
1(1)
1(1)
1(1)
1(1)
1(1)
1(1)
1(1)
1(1)
1(1)
1(1)
1(1)
1(1)
1(1)
1(1)
1(1)
1(1)
1(1)
)

// edgeNormals

44
(
2(5 6)
2(21 22)
2(0 3)
2(1 4)
1(0)
1(1)
1(2)
1(3)
1(4)
1(5)
1(6)
1(7)
1(8)
1(9)
1(9)
1(10)
1(11)
1(12)
1(13)
1(14)
1(15)
1(16)
1(17)
1(18)
1(19)
1(20)
1(20)
1(21)
1(22)
1(23)
1(24)
1(25)
1(26)
1(27)
1(28)
1(29)
1(30)
1(31)
1(32)
1(33)
1(34)
1(35)
1(36)
1(37)
)

// featurePointNormals

12
(
2(0 3)
2(1 4)
2(0 3)
2(1 4)
2(5 6)
2(5 6)
1(8)
1(9)
1(20)
1(20)
2(21 22)
2(21 22)
)

// featurePointEdges

12
(
3(2 4 6)
3(3 4 8)
3(2 5 7)
3(3 5 9)
3(0 8 10)
3(0 9 11)
2(12 14)
2(13 14)
2(25 26)
2(25 27)
3(1 26 28)
3(1 27 29)
)

// regionEdges

40
(
4
5
6
7
8
9
10
11
12
13
14
15
16
17
18
19
20
21
22
23
24
25
26
27
28
29
30
31
32
33
34
35
36
37
38
39
40
41
42
43
)



// ************************************************************************* //
