// * * * * * * * * * * * * * * * * * * * * * * * * * * * * * * * * * * * * * //
FoamFile
{
    version     2.0;
    format      ascii;
    class       dictionary;
    object      turbulenceProperties;
}
// * * * * * * * * * * * * * * * * * * * * * * * * * * * * * * * * * * * * * //

// Code template and library provided by Thorenz, C. (2024), DOI: 10.3929/ethz-b-000675949

simulationType  RAS; 


RAS
{
    RASModel        kOmegaSST;
    // RASModel        kOmegaSSTSAS;

    kOmegaSSTCoeffs
    {
        delta       cubeRootVol;
      
        cubeRootVolCoeffs
        {
            deltaCoeff  1;
        }
    }

    turbulence      on;
    printCoeffs     on;
}



