/*--------------------------------*- C++ -*----------------------------------*\
| =========                 |                                                 |
| \\      /  F ield         | OpenFOAM: The Open Source CFD Toolbox           |
|  \\    /   O peration     | Version:  2412                                  |
|   \\  /    A nd           | Website:  www.openfoam.com                      |
|    \\/     M anipulation  |                                                 |
\*---------------------------------------------------------------------------*/
FoamFile
{
    version     2.0;
    format      ascii;
    arch        "LSB;label=32;scalar=64";
    class       extendedFeatureEdgeMesh;
    location    "constant/extendedFeatureEdgeMesh";
    object      lowerWall.extendedFeatureEdgeMesh;
}
// * * * * * * * * * * * * * * * * * * * * * * * * * * * * * * * * * * * * * //

// points

56
(
(0.540006 0.3 0.148002)
(0.200006 0.3 0.148002)
(0.540006 0.5 0.148002)
(0.200006 0.5 0.148002)
(0.552029 0.5 0.159982)
(0.552029 0.3 0.159982)
(0.624039 0.5 0.174376)
(0.624039 0.3 0.174376)
(0.624039 0.5 0.159982)
(0.624039 0.3 0.159982)
(0.683434 0.3 0.160787)
(0.681856 0.3 0.162378)
(0.683434 0.5 0.160787)
(0.681856 0.5 0.162378)
(1.62004 0.5 0.0479772)
(2.26004 0.5 0.0479772)
(1.62004 0.3 0.0479772)
(2.26004 0.3 0.0479772)
(1.62004 0.5 1e-06)
(1.62004 0.3 1e-06)
(0.860011 0.5 1e-06)
(0.860011 0.3 1e-06)
(0.768696 0.3 0.162819)
(0.75807 0.3 0.161972)
(0.75807 0.5 0.161972)
(0.768696 0.5 0.162819)
(0.781938 0.5 0.15574)
(0.786857 0.5 0.149991)
(0.786857 0.3 0.149991)
(0.781938 0.3 0.15574)
(0.775758 0.5 0.160105)
(0.775758 0.3 0.160105)
(0.747401 0.3 0.161295)
(0.747401 0.5 0.161295)
(0.653631 0.3 0.174376)
(0.653631 0.5 0.174376)
(0.676095 0.5 0.16288)
(0.676095 0.3 0.16288)
(0.670609 0.5 0.16471)
(0.670609 0.3 0.16471)
(0.6657 0.5 0.167767)
(0.6657 0.3 0.167767)
(0.662275 0.5 0.170961)
(0.662275 0.3 0.170961)
(0.658167 0.5 0.17321)
(0.658167 0.3 0.17321)
(0.736776 0.3 0.160787)
(0.736776 0.5 0.160787)
(0.726107 0.3 0.160448)
(0.726107 0.5 0.160448)
(0.715439 0.3 0.160279)
(0.715439 0.5 0.160279)
(0.704771 0.3 0.160279)
(0.704771 0.5 0.160279)
(0.694103 0.3 0.160448)
(0.694103 0.5 0.160448)
)

// edges

65
(
(2 0)
(9 8)
(12 10)
(18 19)
(21 20)
(4 5)
(6 7)
(11 13)
(16 14)
(22 23)
(24 25)
(26 27)
(28 29)
(30 26)
(29 31)
(25 30)
(31 22)
(23 32)
(33 24)
(0 1)
(1 3)
(3 2)
(2 4)
(5 0)
(8 6)
(7 9)
(9 5)
(4 8)
(34 7)
(6 35)
(10 11)
(13 12)
(36 13)
(11 37)
(38 36)
(37 39)
(40 38)
(39 41)
(42 40)
(41 43)
(44 42)
(43 45)
(35 44)
(45 34)
(32 46)
(47 33)
(46 48)
(49 47)
(48 50)
(51 49)
(50 52)
(53 51)
(52 54)
(55 53)
(54 10)
(12 55)
(14 15)
(15 17)
(17 16)
(20 18)
(19 21)
(16 19)
(18 14)
(27 20)
(21 28)
)

// concaveStart mixedStart nonFeatureStart
0 0 22
// internalStart flatStart openStart multipleStart
5 9 9 65
// normals

54
(
(0.0794308 0 -0.99684)
(0.0794308 0 -0.99684)
(-0.759847 -0 -0.650102)
(-0.759847 -0 -0.650102)
(-0.576909 -0 -0.816808)
(-0.576909 -0 -0.816808)
(-0.35862 -0 -0.933484)
(-0.35862 -0 -0.933484)
(0.0633596 0 -0.997991)
(0.0633596 0 -0.997991)
(0 0 -1)
(-0 0 -1)
(0.705861 0 -0.70835)
(0.705861 0 -0.70835)
(1 0 0)
(1 0 0)
(0 0 -1)
(-0 0 -1)
(0 0 -1)
(-0 0 -1)
(-0.709861 0 -0.704342)
(-0.709861 0 -0.704342)
(-0.0868415 -0 -0.996222)
(-0.0868415 -0 -0.996222)
(-0.316452 -0 -0.948609)
(-0.316452 -0 -0.948609)
(-0.528675 -0 -0.848824)
(-0.528675 -0 -0.848824)
(-0.681883 -0 -0.731462)
(-0.681883 -0 -0.731462)
(-0.480277 -0 -0.877117)
(-0.480277 -0 -0.877117)
(-0.248993 -0 -0.968505)
(-0.248993 -0 -0.968505)
(0.0477528 0 -0.998859)
(0.0477528 0 -0.998859)
(0.031733 0 -0.999496)
(0.031733 0 -0.999496)
(0.0158667 0 -0.999874)
(0.0158667 0 -0.999874)
(0 0 -1)
(-0 0 -1)
(-0.0158667 0 -0.999874)
(-0.0158667 0 -0.999874)
(-0.031733 0 -0.999496)
(-0.031733 0 -0.999496)
(0 0 -1)
(0 0 -1)
(-0 -0 -1)
(0 0 -1)
(1 0 0)
(1 -0 0)
(-0.898798 -0 -0.438363)
(-0.898798 0 -0.438363)
)

// normal volume types

54
(
0
0
0
0
0
0
0
0
0
0
0
0
0
0
0
0
0
0
0
0
0
0
0
0
0
0
0
0
0
0
0
0
0
0
0
0
0
0
0
0
0
0
0
0
0
0
0
0
0
0
0
0
0
0
)

// normalDirections

65
(
2(1 -1)
2(1 -1)
2(1 -1)
2(1 -1)
2(1 -1)
2(1 -1)
2(1 -1)
2(1 -1)
2(1 -1)
1(1)
1(1)
1(1)
1(1)
1(1)
1(1)
1(1)
1(1)
1(1)
1(1)
1(1)
1(1)
1(1)
1(1)
1(1)
1(1)
1(1)
1(1)
1(1)
1(1)
1(1)
1(1)
1(1)
1(1)
1(1)
1(1)
1(1)
1(1)
1(1)
1(1)
1(1)
1(1)
1(1)
1(1)
1(1)
1(1)
1(1)
1(1)
1(1)
1(1)
1(1)
1(1)
1(1)
1(1)
1(1)
1(1)
1(1)
1(1)
1(1)
1(1)
1(1)
1(1)
1(1)
1(1)
1(1)
1(1)
)

// edgeNormals

65
(
2(10 13)
2(15 16)
2(20 45)
2(48 50)
2(49 53)
2(12 17)
2(14 19)
2(21 22)
2(46 51)
1(0)
1(1)
1(2)
1(3)
1(4)
1(5)
1(6)
1(7)
1(8)
1(9)
1(10)
1(11)
1(11)
1(12)
1(13)
1(14)
1(15)
1(16)
1(17)
1(18)
1(19)
1(20)
1(21)
1(22)
1(23)
1(24)
1(25)
1(26)
1(27)
1(28)
1(29)
1(30)
1(31)
1(32)
1(33)
1(34)
1(35)
1(36)
1(37)
1(38)
1(39)
1(40)
1(41)
1(42)
1(43)
1(44)
1(45)
1(46)
1(47)
1(47)
1(48)
1(49)
1(50)
1(51)
1(52)
1(53)
)

// featurePointNormals

22
(
2(10 13)
1(10)
2(10 13)
1(11)
2(12 17)
2(12 17)
2(14 19)
2(14 19)
2(15 16)
2(15 16)
2(20 45)
2(21 22)
2(20 45)
2(21 22)
2(46 51)
1(46)
2(46 51)
1(47)
2(48 50)
2(48 50)
2(49 53)
2(49 53)
)

// featurePointEdges

22
(
3(0 19 23)
2(19 20)
3(0 21 22)
2(20 21)
3(5 22 27)
3(5 23 26)
3(6 24 29)
3(6 25 28)
3(1 24 27)
3(1 25 26)
3(2 30 54)
3(7 30 33)
3(2 31 55)
3(7 31 32)
3(8 56 62)
2(56 57)
3(8 58 61)
2(57 58)
3(3 59 62)
3(3 60 61)
3(4 59 63)
3(4 60 64)
)

// regionEdges

56
(
9
10
11
12
13
14
15
16
17
18
19
20
21
22
23
24
25
26
27
28
29
30
31
32
33
34
35
36
37
38
39
40
41
42
43
44
45
46
47
48
49
50
51
52
53
54
55
56
57
58
59
60
61
62
63
64
)



// ************************************************************************* //
