/*--------------------------------*- C++ -*----------------------------------*\
| =========                 |                                                 |
| \\      /  F ield         | OpenFOAM: The Open Source CFD Toolbox           |
|  \\    /   O peration     | Version:  2412                                  |
|   \\  /    A nd           | Website:  www.openfoam.com                      |
|    \\/     M anipulation  |                                                 |
\*---------------------------------------------------------------------------*/
FoamFile
{
    version     2.0;
    format      ascii;
    arch        "LSB;label=32;scalar=64";
    class       featureEdgeMesh;
    location    "constant/triSurface";
    object      lowerWall.eMesh;
}
// * * * * * * * * * * * * * * * * * * * * * * * * * * * * * * * * * * * * * //


// points:

56
(
(0.540006 0.3 0.148002)
(0.200006 0.3 0.148002)
(0.540006 0.5 0.148002)
(0.200006 0.5 0.148002)
(0.552029 0.5 0.159982)
(0.552029 0.3 0.159982)
(0.624039 0.5 0.174376)
(0.624039 0.3 0.174376)
(0.624039 0.5 0.159982)
(0.624039 0.3 0.159982)
(0.683434 0.3 0.160787)
(0.681856 0.3 0.162378)
(0.683434 0.5 0.160787)
(0.681856 0.5 0.162378)
(1.62004 0.5 0.0479772)
(2.26004 0.5 0.0479772)
(1.62004 0.3 0.0479772)
(2.26004 0.3 0.0479772)
(1.62004 0.5 1e-06)
(1.62004 0.3 1e-06)
(0.860011 0.5 1e-06)
(0.860011 0.3 1e-06)
(0.768696 0.3 0.162819)
(0.75807 0.3 0.161972)
(0.75807 0.5 0.161972)
(0.768696 0.5 0.162819)
(0.781938 0.5 0.15574)
(0.786857 0.5 0.149991)
(0.786857 0.3 0.149991)
(0.781938 0.3 0.15574)
(0.775758 0.5 0.160105)
(0.775758 0.3 0.160105)
(0.747401 0.3 0.161295)
(0.747401 0.5 0.161295)
(0.653631 0.3 0.174376)
(0.653631 0.5 0.174376)
(0.676095 0.5 0.16288)
(0.676095 0.3 0.16288)
(0.670609 0.5 0.16471)
(0.670609 0.3 0.16471)
(0.6657 0.5 0.167767)
(0.6657 0.3 0.167767)
(0.662275 0.5 0.170961)
(0.662275 0.3 0.170961)
(0.658167 0.5 0.17321)
(0.658167 0.3 0.17321)
(0.736776 0.3 0.160787)
(0.736776 0.5 0.160787)
(0.726107 0.3 0.160448)
(0.726107 0.5 0.160448)
(0.715439 0.3 0.160279)
(0.715439 0.5 0.160279)
(0.704771 0.3 0.160279)
(0.704771 0.5 0.160279)
(0.694103 0.3 0.160448)
(0.694103 0.5 0.160448)
)


// edges:

65
(
(2 0)
(9 8)
(12 10)
(18 19)
(21 20)
(4 5)
(6 7)
(11 13)
(16 14)
(22 23)
(24 25)
(26 27)
(28 29)
(30 26)
(29 31)
(25 30)
(31 22)
(23 32)
(33 24)
(0 1)
(1 3)
(3 2)
(2 4)
(5 0)
(8 6)
(7 9)
(9 5)
(4 8)
(34 7)
(6 35)
(10 11)
(13 12)
(36 13)
(11 37)
(38 36)
(37 39)
(40 38)
(39 41)
(42 40)
(41 43)
(44 42)
(43 45)
(35 44)
(45 34)
(32 46)
(47 33)
(46 48)
(49 47)
(48 50)
(51 49)
(50 52)
(53 51)
(52 54)
(55 53)
(54 10)
(12 55)
(14 15)
(15 17)
(17 16)
(20 18)
(19 21)
(16 19)
(18 14)
(27 20)
(21 28)
)

// * * * * * * * * * * * * * * * * * * * * * * * * * * * * * * * * * * * * * //


// ************************************************************************* //
