// * * * * * * * * * * * * * * * * * * * * * * * * * * * * * * * * * * * * * //
FoamFile
{
    version     2.0;
    format      ascii;
    class       uniformDimensionedVectorField;
    object      g;
}
// * * * * * * * * * * * * * * * * * * * * * * * * * * * * * * * * * * * * * //

// Code template and library provided by Thorenz, C. (2024), DOI: 10.3929/ethz-b-000675949

dimensions      [0 1 -2 0 0 0 0];

value           (0. 0. -9.81);

