/*--------------------------------*- C++ -*----------------------------------*\
| =========                 |                                                 |
| \\      /  F ield         | OpenFOAM: The Open Source CFD Toolbox           |
|  \\    /   O peration     | Version:  2412                                  |
|   \\  /    A nd           | Website:  www.openfoam.com                      |
|    \\/     M anipulation  |                                                 |
\*---------------------------------------------------------------------------*/
FoamFile
{
    version     2.0;
    format      ascii;
    arch        "LSB;label=32;scalar=64";
    class       featureEdgeMesh;
    location    "constant/triSurface";
    object      defaultFaces.eMesh;
}
// * * * * * * * * * * * * * * * * * * * * * * * * * * * * * * * * * * * * * //


// points:

112
(
(0.900016 0.5 0.648002)
(2.26004 0.5 0.648002)
(1.62004 0.5 0.0479772)
(0.895021 0.5 0.133523)
(0.734151 0.5 0.234448)
(0.786857 0.5 0.149991)
(2.26004 0.5 0.0479772)
(1.62004 0.5 1e-06)
(0.860011 0.5 1e-06)
(0.895021 0.5 0.12802)
(0.81399 0.5 0.0943601)
(0.848411 0.5 0.131534)
(0.723652 0.5 0.228648)
(0.681856 0.5 0.162378)
(0.683434 0.5 0.160787)
(0.624039 0.5 0.174376)
(0.552029 0.5 0.159982)
(0.2 0.5 0.148002)
(0.2 0.5 0.648002)
(0.754175 0.5 0.446368)
(0.754175 0.5 0.648002)
(0.624039 0.5 0.159982)
(0.540006 0.5 0.148002)
(0.732669 0.5 0.2441)
(1.62004 0.3 1e-06)
(1.62004 0.3 0.0479772)
(0.860011 0.3 1e-06)
(0.895021 0.3 0.12802)
(0.81399 0.3 0.0943601)
(0.848411 0.3 0.131534)
(2.26004 0.3 0.0479772)
(2.26004 0.3 0.648002)
(0.900016 0.3 0.648002)
(0.895021 0.3 0.133523)
(0.734151 0.3 0.234448)
(0.732669 0.3 0.2441)
(0.723652 0.3 0.228648)
(0.681856 0.3 0.162378)
(0.624039 0.3 0.174376)
(0.552029 0.3 0.159982)
(0.2 0.3 0.148002)
(0.2 0.3 0.648002)
(0.754175 0.3 0.446368)
(0.754175 0.3 0.648002)
(0.540006 0.3 0.148002)
(0.624039 0.3 0.159982)
(0.683434 0.3 0.160787)
(0.786857 0.3 0.149991)
(0.900016 0.5 0.367949)
(0.8971 0.5 0.344714)
(0.88853 0.5 0.322921)
(0.87484 0.5 0.303923)
(0.856879 0.5 0.288897)
(0.835761 0.5 0.278777)
(0.859755 0.5 0.143551)
(0.823509 0.5 0.14907)
(0.775758 0.5 0.160105)
(0.768696 0.5 0.162819)
(0.781938 0.5 0.15574)
(0.75807 0.5 0.161972)
(0.747401 0.5 0.161295)
(0.736776 0.5 0.160787)
(0.662275 0.5 0.170961)
(0.658167 0.5 0.17321)
(0.726107 0.5 0.160448)
(0.715439 0.5 0.160279)
(0.704771 0.5 0.160279)
(0.6657 0.5 0.167767)
(0.670609 0.5 0.16471)
(0.676095 0.5 0.16288)
(0.694103 0.5 0.160448)
(0.653631 0.5 0.174376)
(0.717858 0.5 0.239156)
(0.707097 0.5 0.278448)
(0.705252 0.5 0.319144)
(0.712413 0.5 0.359249)
(0.712722 0.5 0.3795)
(0.717362 0.5 0.399215)
(0.726117 0.5 0.417479)
(0.738581 0.5 0.433444)
(0.900016 0.3 0.367949)
(0.8971 0.3 0.344714)
(0.88853 0.3 0.322921)
(0.87484 0.3 0.303923)
(0.856879 0.3 0.288897)
(0.835761 0.3 0.278777)
(0.859755 0.3 0.143551)
(0.823509 0.3 0.14907)
(0.768696 0.3 0.162819)
(0.775758 0.3 0.160105)
(0.75807 0.3 0.161972)
(0.747401 0.3 0.161295)
(0.736776 0.3 0.160787)
(0.658167 0.3 0.17321)
(0.662275 0.3 0.170961)
(0.726107 0.3 0.160448)
(0.715439 0.3 0.160279)
(0.704771 0.3 0.160279)
(0.6657 0.3 0.167767)
(0.670609 0.3 0.16471)
(0.676095 0.3 0.16288)
(0.717858 0.3 0.239156)
(0.653631 0.3 0.174376)
(0.707097 0.3 0.278448)
(0.705252 0.3 0.319144)
(0.712413 0.3 0.359249)
(0.712722 0.3 0.3795)
(0.717362 0.3 0.399215)
(0.726117 0.3 0.417479)
(0.738581 0.3 0.433444)
(0.694103 0.3 0.160448)
(0.781938 0.3 0.15574)
)


// edges:

112
(
(0 1)
(48 0)
(49 48)
(50 49)
(51 50)
(52 51)
(53 52)
(3 54)
(54 55)
(56 57)
(58 56)
(55 5)
(5 58)
(1 6)
(6 2)
(7 8)
(2 7)
(9 3)
(8 10)
(10 11)
(11 9)
(57 59)
(12 4)
(59 60)
(60 61)
(62 63)
(61 64)
(64 65)
(65 66)
(67 62)
(68 67)
(13 69)
(69 68)
(66 70)
(70 14)
(14 13)
(63 71)
(71 15)
(72 12)
(73 72)
(74 73)
(75 74)
(76 75)
(17 18)
(77 76)
(78 77)
(79 78)
(19 79)
(18 20)
(20 19)
(15 21)
(21 16)
(16 22)
(22 17)
(4 23)
(23 53)
(24 25)
(26 24)
(28 26)
(27 29)
(29 28)
(30 31)
(25 30)
(80 81)
(31 32)
(32 80)
(81 82)
(82 83)
(83 84)
(84 85)
(86 33)
(87 86)
(88 89)
(85 35)
(35 34)
(34 36)
(90 88)
(91 90)
(92 91)
(93 94)
(95 92)
(96 95)
(97 96)
(94 98)
(98 99)
(99 100)
(100 37)
(36 101)
(38 102)
(102 93)
(101 103)
(103 104)
(104 105)
(105 106)
(41 40)
(106 107)
(107 108)
(108 109)
(109 42)
(42 43)
(43 41)
(40 44)
(44 39)
(39 45)
(45 38)
(46 110)
(37 46)
(110 97)
(89 111)
(111 47)
(47 87)
(33 27)
)

// * * * * * * * * * * * * * * * * * * * * * * * * * * * * * * * * * * * * * //


// ************************************************************************* //
